/*--------------------------------*- C++ -*----------------------------------*\
| =========                 |                                                 |
| \\      /  F ield         | OpenFOAM: The Open Source CFD Toolbox           |
|  \\    /   O peration     | Version:  v2112                                 |
|   \\  /    A nd           | Website:  www.openfoam.com                      |
|    \\/     M anipulation  |                                                 |
\*---------------------------------------------------------------------------*/
FoamFile
{
    version     2.0;
    format      ascii;
    class       dictionary;
    object      fvSolution;
}
// * * * * * * * * * * * * * * * * * * * * * * * * * * * * * * * * * * * * * //

solvers
{
    p
    {
        solver          GAMG;
        smoother        GaussSeidel;
        tolerance       1e-9;
        relTol          1e-6;
    }

    "(U|nuTilda)"
    {
        solver          smoothSolver;
        smoother  	GaussSeidel;
	nSweeps		2;
        tolerance       1e-9;
        relTol          1e-6;
    }
}

SIMPLE
{
    residualControl
    {
        p       1e-9;
        U       1e-9;
        nuTilda 1e-6;
    }
    consistent yes;
    nNonOrthogonalCorrectors 0;
}

relaxationFactors
{
    equations
    {
        U     .99; // 0.9 is more stable but 0.95 more convergent
        ".*"  .99; // 0.9 is more stable but 0.95 more convergent
    }
}

// ************************************************************************* //
