/*--------------------------------*- C++ -*----------------------------------*\
| =========                 |                                                 |
| \\      /  F ield         | OpenFOAM: The Open Source CFD Toolbox           |
|  \\    /   O peration     | Version:  2112                                  |
|   \\  /    A nd           | Website:  www.openfoam.com                      |
|    \\/     M anipulation  |                                                 |
\*---------------------------------------------------------------------------*/
FoamFile
{
    version     2.0;
    format      binary;
    arch        "LSB;label=32;scalar=64";
    class       polyBoundaryMesh;
    location    "constant/polyMesh";
    object      boundary;
}
// * * * * * * * * * * * * * * * * * * * * * * * * * * * * * * * * * * * * * //

9
(
    inlet
    {
        type            patch;
        physicalType    inlet;
        nFaces          48;
        startFace       35842;
    }
    front
    {
        type            wedge;
        physicalType    wedge;
        inGroups        1(wedge);
        nFaces          18080;
        startFace       35890;
    }
    back
    {
        type            wedge;
        physicalType    wedge;
        inGroups        1(wedge);
        nFaces          18080;
        startFace       53970;
    }
    wall_in
    {
        type            wall;
        physicalType    wall;
        inGroups        1(wall);
        nFaces          48;
        startFace       72050;
    }
    wall_out
    {
        type            wall;
        physicalType    wall;
        inGroups        1(wall);
        nFaces          30;
        startFace       72098;
    }
    wall_end
    {
        type            wall;
        physicalType    wall;
        inGroups        1(wall);
        nFaces          16;
        startFace       72128;
    }
    coflow
    {
        type            patch;
        physicalType    inlet;
        nFaces          48;
        startFace       72144;
    }
    far
    {
        type            patch;
        physicalType    outlet;
        nFaces          158;
        startFace       72192;
    }
    outlet
    {
        type            patch;
        physicalType    outlet;
        nFaces          112;
        startFace       72350;
    }
)

// ************************************************************************* //
